<?xml version="1.0" encoding="UTF-8"?>

<!-- generated on 2024-07-18 14:33:54 by Eclipse SUMO netedit Version 1.20.0
<configuration xmlns:xsi="http://www.w3.org/2001/XMLSchema-instance" xsi:noNamespaceSchemaLocation="http://sumo.dlr.de/xsd/neteditConfiguration.xsd">

    <input>
        <sumo-net-file value="C:\Coding\signal syncronization\intersection2.net.xml"/>
    </input>

    <output>
        <output-file value="C:\Coding\signal syncronization\intersection2.net.xml"/>
    </output>

    <processing>
        <offset.disable-normalization value="true"/>
    </processing>

    <junctions>
        <no-turnarounds value="true"/>
    </junctions>

    <netedit>
        <new-network value="false"/>
    </netedit>

</configuration>
-->

<net version="1.20" junctionCornerDetail="5" limitTurnSpeed="5.50" xmlns:xsi="http://www.w3.org/2001/XMLSchema-instance" xsi:noNamespaceSchemaLocation="http://sumo.dlr.de/xsd/net_file.xsd">

    <location netOffset="0.00,0.00" convBoundary="-53.29,22.07,139.88,99.27" origBoundary="10000000000.00,10000000000.00,-10000000000.00,-10000000000.00" projParameter="!"/>

    <edge id=":J10_0" function="internal">
        <lane id=":J10_0_0" index="0" speed="6.07" length="8.02" shape="90.77,95.92 90.44,98.11 89.49,99.63 87.91,100.49 85.70,100.68"/>
    </edge>
    <edge id=":J10_1" function="internal">
        <lane id=":J10_1_0" index="0" speed="3.90" length="2.67" shape="85.88,97.49 86.61,97.42 87.14,97.14 87.46,96.63 87.57,95.90"/>
    </edge>
    <edge id=":J2_0" function="internal">
        <lane id=":J2_0_0" index="0" speed="6.55" length="9.09" shape="-9.99,63.89 -12.45,64.25 -14.20,65.32 -15.26,67.08 -15.62,69.56"/>
    </edge>
    <edge id=":J2_1" function="internal">
        <lane id=":J2_1_0" index="0" speed="13.89" length="14.42" shape="-9.99,63.89 -24.42,63.97"/>
    </edge>
    <edge id=":J2_2" function="internal">
        <lane id=":J2_2_0" index="0" speed="8.01" length="4.06" shape="-9.99,63.89 -13.84,63.35 -13.99,63.27"/>
    </edge>
    <edge id=":J2_12" function="internal">
        <lane id=":J2_12_0" index="0" speed="8.01" length="10.13" shape="-13.99,63.27 -16.60,61.72 -18.27,58.97 -18.84,55.13"/>
    </edge>
    <edge id=":J2_3" function="internal">
        <lane id=":J2_3_0" index="0" speed="6.51" length="9.03" shape="-15.64,55.11 -15.27,57.56 -14.21,59.30 -12.46,60.35 -10.01,60.69"/>
    </edge>
    <edge id=":J2_4" function="internal">
        <lane id=":J2_4_0" index="0" speed="13.89" length="14.45" shape="-15.64,55.11 -15.62,69.56"/>
    </edge>
    <edge id=":J2_5" function="internal">
        <lane id=":J2_5_0" index="0" speed="8.01" length="4.10" shape="-15.64,55.11 -16.17,58.96 -16.27,59.14"/>
    </edge>
    <edge id=":J2_13" function="internal">
        <lane id=":J2_13_0" index="0" speed="8.01" length="10.12" shape="-16.27,59.14 -17.81,61.72 -20.56,63.39 -24.42,63.97"/>
    </edge>
    <edge id=":J2_6" function="internal">
        <lane id=":J2_6_0" index="0" speed="6.52" length="9.06" shape="-24.44,60.77 -21.98,60.40 -20.22,59.34 -19.18,57.58 -18.84,55.13"/>
    </edge>
    <edge id=":J2_7" function="internal">
        <lane id=":J2_7_0" index="0" speed="13.89" length="14.43" shape="-24.44,60.77 -10.01,60.69"/>
    </edge>
    <edge id=":J2_8" function="internal">
        <lane id=":J2_8_0" index="0" speed="7.98" length="4.08" shape="-24.44,60.77 -20.57,61.29 -20.42,61.38"/>
    </edge>
    <edge id=":J2_14" function="internal">
        <lane id=":J2_14_0" index="0" speed="7.98" length="10.15" shape="-20.42,61.38 -17.81,62.93 -16.16,65.69 -15.62,69.56"/>
    </edge>
    <edge id=":J2_9" function="internal">
        <lane id=":J2_9_0" index="0" speed="6.49" length="9.03" shape="-18.82,69.54 -19.16,67.09 -20.21,65.34 -21.96,64.30 -24.42,63.97"/>
    </edge>
    <edge id=":J2_10" function="internal">
        <lane id=":J2_10_0" index="0" speed="13.89" length="14.42" shape="-18.82,69.54 -18.84,55.13"/>
    </edge>
    <edge id=":J2_11" function="internal">
        <lane id=":J2_11_0" index="0" speed="8.03" length="4.05" shape="-18.82,69.54 -18.26,65.68 -18.18,65.56"/>
    </edge>
    <edge id=":J2_15" function="internal">
        <lane id=":J2_15_0" index="0" speed="8.03" length="10.18" shape="-18.18,65.56 -16.60,62.92 -13.85,61.25 -10.01,60.69"/>
    </edge>
    <edge id=":J3_0" function="internal">
        <lane id=":J3_0_0" index="0" speed="6.52" length="9.05" shape="45.49,63.69 43.03,64.04 41.28,65.09 40.23,66.84 39.87,69.30"/>
    </edge>
    <edge id=":J3_1" function="internal">
        <lane id=":J3_1_0" index="0" speed="13.89" length="14.41" shape="45.49,63.69 31.07,63.70"/>
    </edge>
    <edge id=":J3_2" function="internal">
        <lane id=":J3_2_0" index="0" speed="8.01" length="4.04" shape="45.49,63.69 41.64,63.13 41.51,63.05"/>
    </edge>
    <edge id=":J3_12" function="internal">
        <lane id=":J3_12_0" index="0" speed="8.01" length="10.15" shape="41.51,63.05 38.89,61.48 37.24,58.73 36.69,54.88"/>
    </edge>
    <edge id=":J3_3" function="internal">
        <lane id=":J3_3_0" index="0" speed="6.51" length="9.03" shape="39.89,54.88 40.24,57.33 41.29,59.08 43.04,60.13 45.49,60.49"/>
    </edge>
    <edge id=":J3_4" function="internal">
        <lane id=":J3_4_0" index="0" speed="13.89" length="14.42" shape="39.89,54.88 39.87,69.30"/>
    </edge>
    <edge id=":J3_5" function="internal">
        <lane id=":J3_5_0" index="0" speed="8.02" length="4.07" shape="39.89,54.88 39.34,58.73 39.24,58.89"/>
    </edge>
    <edge id=":J3_13" function="internal">
        <lane id=":J3_13_0" index="0" speed="8.02" length="10.14" shape="39.24,58.89 37.69,61.48 34.93,63.14 31.07,63.70"/>
    </edge>
    <edge id=":J3_6" function="internal">
        <lane id=":J3_6_0" index="0" speed="6.53" length="9.07" shape="31.06,60.50 33.52,60.14 35.28,59.09 36.34,57.33 36.69,54.88"/>
    </edge>
    <edge id=":J3_7" function="internal">
        <lane id=":J3_7_0" index="0" speed="13.89" length="14.43" shape="31.06,60.50 45.49,60.49"/>
    </edge>
    <edge id=":J3_8" function="internal">
        <lane id=":J3_8_0" index="0" speed="7.99" length="4.10" shape="31.06,60.50 34.92,61.04 35.09,61.14"/>
    </edge>
    <edge id=":J3_14" function="internal">
        <lane id=":J3_14_0" index="0" speed="7.99" length="10.12" shape="35.09,61.14 37.68,62.69 39.33,65.44 39.87,69.30"/>
    </edge>
    <edge id=":J3_9" function="internal">
        <lane id=":J3_9_0" index="0" speed="6.49" length="9.03" shape="36.67,69.29 36.32,66.84 35.28,65.09 33.53,64.04 31.07,63.70"/>
    </edge>
    <edge id=":J3_10" function="internal">
        <lane id=":J3_10_0" index="0" speed="13.89" length="14.41" shape="36.67,69.29 36.69,54.88"/>
    </edge>
    <edge id=":J3_11" function="internal">
        <lane id=":J3_11_0" index="0" speed="8.01" length="4.07" shape="36.67,69.29 37.23,65.43 37.32,65.29"/>
    </edge>
    <edge id=":J3_15" function="internal">
        <lane id=":J3_15_0" index="0" speed="8.01" length="10.15" shape="37.32,65.29 38.89,62.68 41.64,61.03 45.49,60.49"/>
    </edge>
    <edge id=":J4_0" function="internal">
        <lane id=":J4_0_0" index="0" speed="6.52" length="9.05" shape="96.58,63.83 94.13,64.17 92.37,65.21 91.31,66.96 90.94,69.42"/>
    </edge>
    <edge id=":J4_1" function="internal">
        <lane id=":J4_1_0" index="0" speed="13.89" length="14.43" shape="96.58,63.83 82.15,63.78"/>
    </edge>
    <edge id=":J4_2" function="internal">
        <lane id=":J4_2_0" index="0" speed="8.05" length="4.05" shape="96.58,63.83 92.73,63.26 92.59,63.17"/>
    </edge>
    <edge id=":J4_12" function="internal">
        <lane id=":J4_12_0" index="0" speed="8.05" length="10.18" shape="92.59,63.17 89.98,61.59 88.31,58.83 87.72,54.97"/>
    </edge>
    <edge id=":J4_3" function="internal">
        <lane id=":J4_3_0" index="0" speed="6.57" length="9.13" shape="90.92,54.94 91.30,57.42 92.37,59.19 94.13,60.26 96.59,60.63"/>
    </edge>
    <edge id=":J4_4" function="internal">
        <lane id=":J4_4_0" index="0" speed="13.89" length="14.48" shape="90.92,54.94 90.94,69.42"/>
    </edge>
    <edge id=":J4_5" function="internal">
        <lane id=":J4_5_0" index="0" speed="7.98" length="4.13" shape="90.92,54.94 90.41,58.82 90.29,59.01"/>
    </edge>
    <edge id=":J4_13" function="internal">
        <lane id=":J4_13_0" index="0" speed="7.98" length="10.10" shape="90.29,59.01 88.77,61.58 86.02,63.23 82.15,63.78"/>
    </edge>
    <edge id=":J4_6" function="internal">
        <lane id=":J4_6_0" index="0" speed="6.48" length="9.03" shape="82.16,60.58 84.61,60.23 86.36,59.18 87.40,57.43 87.72,54.97"/>
    </edge>
    <edge id=":J4_7" function="internal">
        <lane id=":J4_7_0" index="0" speed="13.89" length="14.44" shape="82.16,60.58 96.59,60.63"/>
    </edge>
    <edge id=":J4_8" function="internal">
        <lane id=":J4_8_0" index="0" speed="8.00" length="4.09" shape="82.16,60.58 86.02,61.14 86.18,61.23"/>
    </edge>
    <edge id=":J4_14" function="internal">
        <lane id=":J4_14_0" index="0" speed="8.00" length="10.14" shape="86.18,61.23 88.78,62.80 90.42,65.56 90.94,69.42"/>
    </edge>
    <edge id=":J4_9" function="internal">
        <lane id=":J4_9_0" index="0" speed="6.50" length="9.05" shape="87.74,69.40 87.41,66.94 86.36,65.19 84.61,64.13 82.15,63.78"/>
    </edge>
    <edge id=":J4_10" function="internal">
        <lane id=":J4_10_0" index="0" speed="13.89" length="14.42" shape="87.74,69.40 87.72,54.97"/>
    </edge>
    <edge id=":J4_11" function="internal">
        <lane id=":J4_11_0" index="0" speed="8.01" length="4.02" shape="87.74,69.40 88.32,65.55 88.38,65.44"/>
    </edge>
    <edge id=":J4_15" function="internal">
        <lane id=":J4_15_0" index="0" speed="8.01" length="10.19" shape="88.38,65.44 89.98,62.80 92.74,61.16 96.59,60.63"/>
    </edge>
    <edge id=":J5_0" function="internal">
        <lane id=":J5_0_0" index="0" speed="13.89" length="13.88" shape="45.03,98.44 31.15,98.19"/>
    </edge>
    <edge id=":J5_1" function="internal">
        <lane id=":J5_1_0" index="0" speed="8.08" length="3.77" shape="45.03,98.44 41.33,97.70"/>
    </edge>
    <edge id=":J5_6" function="internal">
        <lane id=":J5_6_0" index="0" speed="8.08" length="10.16" shape="41.33,97.70 38.69,95.95 37.11,93.19 36.60,89.41"/>
    </edge>
    <edge id=":J5_2" function="internal">
        <lane id=":J5_2_0" index="0" speed="6.60" length="8.97" shape="39.80,89.42 40.13,91.86 41.14,93.64 42.83,94.77 45.20,95.25"/>
    </edge>
    <edge id=":J5_3" function="internal">
        <lane id=":J5_3_0" index="0" speed="8.01" length="13.98" shape="39.80,89.42 39.24,93.20 37.62,95.92 34.92,97.58 31.15,98.19"/>
    </edge>
    <edge id=":J5_4" function="internal">
        <lane id=":J5_4_0" index="0" speed="6.51" length="8.89" shape="31.09,94.99 33.49,94.60 35.21,93.54 36.24,91.81 36.60,89.41"/>
    </edge>
    <edge id=":J5_5" function="internal">
        <lane id=":J5_5_0" index="0" speed="13.89" length="14.11" shape="31.09,94.99 45.20,95.25"/>
    </edge>
    <edge id=":J6_0" function="internal">
        <lane id=":J6_0_0" index="0" speed="6.52" length="9.07" shape="45.49,23.78 43.04,24.14 41.29,25.20 40.24,26.96 39.89,29.43"/>
    </edge>
    <edge id=":J6_1" function="internal">
        <lane id=":J6_1_0" index="0" speed="13.89" length="14.41" shape="45.49,23.78 31.08,23.87"/>
    </edge>
    <edge id=":J6_2" function="internal">
        <lane id=":J6_2_0" index="0" speed="13.89" length="14.44" shape="31.04,20.67 45.48,20.58"/>
    </edge>
    <edge id=":J6_3" function="internal">
        <lane id=":J6_3_0" index="0" speed="7.98" length="4.11" shape="31.04,20.67 34.91,21.19 35.09,21.29"/>
    </edge>
    <edge id=":J6_6" function="internal">
        <lane id=":J6_6_0" index="0" speed="7.98" length="10.13" shape="35.09,21.29 37.68,22.81 39.34,25.56 39.89,29.43"/>
    </edge>
    <edge id=":J6_4" function="internal">
        <lane id=":J6_4_0" index="0" speed="6.48" length="9.03" shape="36.69,29.43 36.34,26.98 35.29,25.23 33.53,24.20 31.08,23.87"/>
    </edge>
    <edge id=":J6_5" function="internal">
        <lane id=":J6_5_0" index="0" speed="8.02" length="14.22" shape="36.69,29.43 37.24,25.57 38.89,22.80 41.64,21.14 45.48,20.58"/>
    </edge>
    <edge id=":J7_0" function="internal">
        <lane id=":J7_0_0" index="0" speed="6.08" length="7.71" shape="-19.02,26.00 -18.73,23.91 -17.85,22.40 -16.36,21.49 -14.27,21.17"/>
    </edge>
    <edge id=":J7_1" function="internal">
        <lane id=":J7_1_0" index="0" speed="3.90" length="2.57" shape="-14.24,24.37 -14.93,24.48 -15.43,24.78 -15.72,25.28 -15.82,25.98"/>
    </edge>
    <edge id=":J8_0" function="internal">
        <lane id=":J8_0_0" index="0" speed="3.90" length="2.57" shape="87.45,25.27 87.35,24.57 87.05,24.08 86.55,23.78 85.85,23.68"/>
    </edge>
    <edge id=":J8_1" function="internal">
        <lane id=":J8_1_0" index="0" speed="6.08" length="7.70" shape="85.84,20.48 87.93,20.77 89.43,21.66 90.34,23.15 90.65,25.24"/>
    </edge>
    <edge id=":J9_0" function="internal">
        <lane id=":J9_0_0" index="0" speed="6.07" length="7.86" shape="-14.02,98.98 -16.16,98.71 -17.69,97.82 -18.61,96.30 -18.91,94.17"/>
    </edge>
    <edge id=":J9_1" function="internal">
        <lane id=":J9_1_0" index="0" speed="3.90" length="2.62" shape="-15.71,94.18 -15.61,94.89 -15.30,95.39 -14.79,95.69 -14.08,95.78"/>
    </edge>

    <edge id="-E0" from="J3" to="J2" priority="-1">
        <lane id="-E0_0" index="0" speed="13.89" length="41.07" shape="31.07,63.70 -9.99,63.89"/>
    </edge>
    <edge id="-E1" from="J4" to="J3" priority="-1">
        <lane id="-E1_0" index="0" speed="13.89" length="36.66" shape="82.15,63.78 45.49,63.69"/>
    </edge>
    <edge id="-E10" from="J5" to="J9" priority="-1">
        <lane id="-E10_0" index="0" speed="13.89" length="45.18" shape="31.15,98.19 -14.02,98.98"/>
    </edge>
    <edge id="-E11" from="J10" to="J4" priority="-1">
        <lane id="-E11_0" index="0" speed="13.89" length="26.50" shape="87.57,95.90 87.74,69.40"/>
    </edge>
    <edge id="-E12" from="J5" to="J10" priority="-1">
        <lane id="-E12_0" index="0" speed="13.89" length="40.74" shape="45.20,95.25 85.88,97.49"/>
    </edge>
    <edge id="-E13" from="J13" to="J4" priority="-1">
        <lane id="-E13_0" index="0" speed="13.89" length="43.29" shape="139.87,64.04 96.58,63.83"/>
    </edge>
    <edge id="-E14" from="J14" to="J2" priority="-1">
        <lane id="-E14_0" index="0" speed="13.89" length="28.87" shape="-53.30,60.96 -24.44,60.77"/>
    </edge>
    <edge id="-E2" from="J5" to="J3" priority="-1">
        <lane id="-E2_0" index="0" speed="13.89" length="20.12" shape="36.60,89.41 36.67,69.29"/>
    </edge>
    <edge id="-E3" from="J6" to="J3" priority="-1">
        <lane id="-E3_0" index="0" speed="13.89" length="25.45" shape="39.89,29.43 39.89,54.88"/>
    </edge>
    <edge id="-E5" from="J7" to="J2" priority="-1">
        <lane id="-E5_0" index="0" speed="13.89" length="29.13" shape="-15.82,25.98 -15.64,55.11"/>
    </edge>
    <edge id="-E6" from="J7" to="J6" priority="-1">
        <lane id="-E6_0" index="0" speed="13.89" length="45.32" shape="-14.27,21.17 31.04,20.67"/>
    </edge>
    <edge id="-E7" from="J8" to="J4" priority="-1">
        <lane id="-E7_0" index="0" speed="13.89" length="29.71" shape="90.65,25.24 90.92,54.94"/>
    </edge>
    <edge id="-E8" from="J6" to="J8" priority="-1">
        <lane id="-E8_0" index="0" speed="13.89" length="40.36" shape="45.48,20.58 85.84,20.48"/>
    </edge>
    <edge id="-E9" from="J2" to="J9" priority="-1">
        <lane id="-E9_0" index="0" speed="13.89" length="24.62" shape="-15.62,69.56 -15.71,94.18"/>
    </edge>
    <edge id="E0" from="J2" to="J3" priority="-1">
        <lane id="E0_0" index="0" speed="13.89" length="41.07" shape="-10.01,60.69 31.06,60.50"/>
    </edge>
    <edge id="E1" from="J3" to="J4" priority="-1">
        <lane id="E1_0" index="0" speed="13.89" length="36.66" shape="45.49,60.49 82.16,60.58"/>
    </edge>
    <edge id="E10" from="J9" to="J5" priority="-1">
        <lane id="E10_0" index="0" speed="13.89" length="45.18" shape="-14.08,95.78 31.09,94.99"/>
    </edge>
    <edge id="E11" from="J4" to="J10" priority="-1">
        <lane id="E11_0" index="0" speed="13.89" length="26.50" shape="90.94,69.42 90.77,95.92"/>
    </edge>
    <edge id="E12" from="J10" to="J5" priority="-1">
        <lane id="E12_0" index="0" speed="13.89" length="40.74" shape="85.70,100.68 45.03,98.44"/>
    </edge>
    <edge id="E13" from="J4" to="J13" priority="-1">
        <lane id="E13_0" index="0" speed="13.89" length="43.29" shape="96.59,60.63 139.89,60.84"/>
    </edge>
    <edge id="E14" from="J2" to="J14" priority="-1">
        <lane id="E14_0" index="0" speed="13.89" length="28.87" shape="-24.42,63.97 -53.28,64.16"/>
    </edge>
    <edge id="E2" from="J3" to="J5" priority="-1">
        <lane id="E2_0" index="0" speed="13.89" length="20.12" shape="39.87,69.30 39.80,89.42"/>
    </edge>
    <edge id="E3" from="J3" to="J6" priority="-1">
        <lane id="E3_0" index="0" speed="13.89" length="25.45" shape="36.69,54.88 36.69,29.43"/>
    </edge>
    <edge id="E5" from="J2" to="J7" priority="-1">
        <lane id="E5_0" index="0" speed="13.89" length="29.13" shape="-18.84,55.13 -19.02,26.00"/>
    </edge>
    <edge id="E6" from="J6" to="J7" priority="-1">
        <lane id="E6_0" index="0" speed="13.89" length="45.32" shape="31.08,23.87 -14.24,24.37"/>
    </edge>
    <edge id="E7" from="J4" to="J8" priority="-1">
        <lane id="E7_0" index="0" speed="13.89" length="29.71" shape="87.72,54.97 87.45,25.27"/>
    </edge>
    <edge id="E8" from="J8" to="J6" priority="-1">
        <lane id="E8_0" index="0" speed="13.89" length="40.36" shape="85.85,23.68 45.49,23.78"/>
    </edge>
    <edge id="E9" from="J9" to="J2" priority="-1">
        <lane id="E9_0" index="0" speed="13.89" length="24.62" shape="-18.91,94.17 -18.82,69.54"/>
    </edge>

    <tlLogic id="J2" type="static" programID="0" offset="0">
        <phase duration="42" state="GGgrrrGGgrrr"/>
        <phase duration="3"  state="yyyrrryyyrrr"/>
        <phase duration="42" state="rrrGGgrrrGGg"/>
        <phase duration="3"  state="rrryyyrrryyy"/>
    </tlLogic>
    <tlLogic id="J3" type="static" programID="0" offset="0">
        <phase duration="42" state="rrrGGgrrrGGg"/>
        <phase duration="3"  state="rrryyyrrryyy"/>
        <phase duration="42" state="GGgrrrGGgrrr"/>
        <phase duration="3"  state="yyyrrryyyrrr"/>
    </tlLogic>
    <tlLogic id="J4" type="static" programID="0" offset="0">
        <phase duration="42" state="GGgrrrGGgrrr"/>
        <phase duration="3"  state="yyyrrryyyrrr"/>
        <phase duration="42" state="rrrGGgrrrGGg"/>
        <phase duration="3"  state="rrryyyrrryyy"/>
    </tlLogic>
    <tlLogic id="J5" type="static" programID="0" offset="0">
        <phase duration="42" state="GgrrGG"/>
        <phase duration="3"  state="yyrrGy"/>
        <phase duration="42" state="rrGGGr"/>
        <phase duration="3"  state="rryyGr"/>
    </tlLogic>
    <tlLogic id="J6" type="static" programID="0" offset="0">
        <phase duration="42" state="GGGgrr"/>
        <phase duration="3"  state="Gyyyrr"/>
        <phase duration="42" state="GrrrGG"/>
        <phase duration="3"  state="Grrryy"/>
    </tlLogic>

    <junction id="J10" type="priority" x="89.15" y="99.27" incLanes="E11_0 -E12_0" intLanes=":J10_0_0 :J10_1_0" shape="92.37,95.93 85.97,95.89 85.62,102.28 87.67,102.21 89.35,101.74 90.66,100.88 91.60,99.62 92.17,97.97">
        <request index="0" response="00" foes="00" cont="0"/>
        <request index="1" response="00" foes="00" cont="0"/>
    </junction>
    <junction id="J13" type="dead_end" x="139.88" y="62.44" incLanes="E13_0" intLanes="" shape="139.88,62.44 139.89,59.24 139.88,62.44"/>
    <junction id="J14" type="dead_end" x="-53.29" y="62.56" incLanes="E14_0" intLanes="" shape="-53.29,62.56 -53.27,65.76 -53.29,62.56"/>
    <junction id="J2" type="traffic_light" x="-17.20" y="62.32" incLanes="-E0_0 -E5_0 -E14_0 E9_0" intLanes=":J2_0_0 :J2_1_0 :J2_12_0 :J2_3_0 :J2_4_0 :J2_13_0 :J2_6_0 :J2_7_0 :J2_14_0 :J2_9_0 :J2_10_0 :J2_15_0" shape="-9.99,65.49 -10.01,59.09 -12.24,58.65 -13.02,58.10 -13.58,57.32 -13.92,56.32 -14.04,55.10 -20.44,55.14 -20.87,57.36 -21.43,58.15 -22.21,58.71 -23.22,59.05 -24.45,59.17 -24.41,65.57 -22.19,66.00 -21.41,66.55 -20.86,67.32 -20.53,68.32 -20.42,69.54 -14.02,69.56 -13.57,67.30 -13.00,66.51 -12.22,65.95 -11.22,65.60">
        <request index="0"  response="000000000000" foes="000100010000" cont="0"/>
        <request index="1"  response="100000100000" foes="111100110000" cont="0"/>
        <request index="2"  response="100111100000" foes="110111110000" cont="1"/>
        <request index="3"  response="000010000000" foes="100010000000" cont="0"/>
        <request index="4"  response="000110000111" foes="100110000111" cont="0"/>
        <request index="5"  response="111110000110" foes="111110000110" cont="1"/>
        <request index="6"  response="000000000000" foes="010000000100" cont="0"/>
        <request index="7"  response="100000100000" foes="110000111100" cont="0"/>
        <request index="8"  response="100000100011" foes="110000110111" cont="1"/>
        <request index="9"  response="000000000010" foes="000000100010" cont="0"/>
        <request index="10" response="000111000110" foes="000111100110" cont="0"/>
        <request index="11" response="000110011110" foes="000110111110" cont="1"/>
    </junction>
    <junction id="J3" type="traffic_light" x="38.29" y="62.07" incLanes="-E1_0 -E3_0 E0_0 -E2_0" intLanes=":J3_0_0 :J3_1_0 :J3_12_0 :J3_3_0 :J3_4_0 :J3_13_0 :J3_6_0 :J3_7_0 :J3_14_0 :J3_9_0 :J3_10_0 :J3_15_0" shape="45.48,65.29 45.50,58.89 43.27,58.44 42.49,57.88 41.94,57.10 41.60,56.10 41.49,54.88 35.09,54.88 34.64,57.11 34.08,57.89 33.30,58.45 32.29,58.79 31.05,58.90 31.08,65.30 33.30,65.74 34.08,66.29 34.63,67.07 34.96,68.07 35.07,69.29 41.47,69.31 41.92,67.07 42.48,66.29 43.26,65.73 44.26,65.40">
        <request index="0"  response="000000010000" foes="000100010000" cont="0"/>
        <request index="1"  response="111000110000" foes="111100110000" cont="0"/>
        <request index="2"  response="110111110000" foes="110111110000" cont="1"/>
        <request index="3"  response="000000000000" foes="100010000000" cont="0"/>
        <request index="4"  response="000100000100" foes="100110000111" cont="0"/>
        <request index="5"  response="011100000100" foes="111110000110" cont="1"/>
        <request index="6"  response="010000000000" foes="010000000100" cont="0"/>
        <request index="7"  response="110000111000" foes="110000111100" cont="0"/>
        <request index="8"  response="110000110011" foes="110000110111" cont="1"/>
        <request index="9"  response="000000000000" foes="000000100010" cont="0"/>
        <request index="10" response="000100000100" foes="000111100110" cont="0"/>
        <request index="11" response="000100111100" foes="000110111110" cont="1"/>
    </junction>
    <junction id="J4" type="traffic_light" x="89.39" y="62.20" incLanes="-E13_0 -E7_0 E1_0 -E11_0" intLanes=":J4_0_0 :J4_1_0 :J4_12_0 :J4_3_0 :J4_4_0 :J4_13_0 :J4_6_0 :J4_7_0 :J4_14_0 :J4_9_0 :J4_10_0 :J4_15_0" shape="96.57,65.43 96.60,59.03 94.35,58.57 93.56,57.99 92.99,57.20 92.65,56.18 92.52,54.93 86.12,54.99 85.70,57.21 85.15,57.99 84.38,58.54 83.38,58.87 82.16,58.98 82.15,65.38 84.38,65.83 85.16,66.39 85.71,67.16 86.04,68.16 86.14,69.39 92.54,69.43 93.00,67.20 93.56,66.42 94.34,65.87 95.35,65.54">
        <request index="0"  response="000000000000" foes="000100010000" cont="0"/>
        <request index="1"  response="100000100000" foes="111100110000" cont="0"/>
        <request index="2"  response="100111100000" foes="110111110000" cont="1"/>
        <request index="3"  response="000010000000" foes="100010000000" cont="0"/>
        <request index="4"  response="000110000111" foes="100110000111" cont="0"/>
        <request index="5"  response="011110000110" foes="111110000110" cont="1"/>
        <request index="6"  response="000000000000" foes="010000000100" cont="0"/>
        <request index="7"  response="100000100000" foes="110000111100" cont="0"/>
        <request index="8"  response="100000100011" foes="110000110111" cont="1"/>
        <request index="9"  response="000000000010" foes="000000100010" cont="0"/>
        <request index="10" response="000111000110" foes="000111100110" cont="0"/>
        <request index="11" response="000110111110" foes="000110111110" cont="1"/>
    </junction>
    <junction id="J5" type="traffic_light" x="38.17" y="96.46" incLanes="E12_0 E2_0 E10_0" intLanes=":J5_0_0 :J5_6_0 :J5_2_0 :J5_3_0 :J5_4_0 :J5_5_0" shape="44.94,100.04 45.29,93.65 43.12,93.09 42.36,92.49 41.82,91.68 41.50,90.66 41.40,89.43 35.00,89.40 34.55,91.59 34.01,92.36 33.24,92.91 32.26,93.26 31.07,93.39 31.18,99.79">
        <request index="0" response="000000" foes="001000" cont="0"/>
        <request index="1" response="110000" foes="111000" cont="1"/>
        <request index="2" response="100000" foes="100000" cont="0"/>
        <request index="3" response="100011" foes="100011" cont="0"/>
        <request index="4" response="000000" foes="000010" cont="0"/>
        <request index="5" response="000000" foes="001110" cont="0"/>
    </junction>
    <junction id="J6" type="traffic_light" x="38.29" y="22.20" incLanes="E8_0 -E6_0 E3_0" intLanes=":J6_0_0 :J6_1_0 :J6_2_0 :J6_6_0 :J6_4_0 :J6_5_0" shape="45.49,25.38 45.48,18.98 31.02,19.07 31.09,25.47 33.32,25.89 34.09,26.44 34.65,27.21 34.98,28.21 35.09,29.43 41.49,29.43 41.94,27.18 42.49,26.40 43.27,25.83 44.27,25.49">
        <request index="0" response="000000" foes="001000" cont="0"/>
        <request index="1" response="000000" foes="111000" cont="0"/>
        <request index="2" response="000000" foes="100000" cont="0"/>
        <request index="3" response="000011" foes="100011" cont="1"/>
        <request index="4" response="000010" foes="000010" cont="0"/>
        <request index="5" response="001110" foes="001110" cont="0"/>
    </junction>
    <junction id="J7" type="priority" x="-17.44" y="22.80" incLanes="E5_0 E6_0" intLanes=":J7_0_0 :J7_1_0" shape="-20.62,26.01 -14.22,25.97 -14.29,19.57 -17.82,20.32 -19.06,21.21 -19.93,22.46 -20.45,24.06">
        <request index="0" response="00" foes="00" cont="0"/>
        <request index="1" response="00" foes="00" cont="0"/>
    </junction>
    <junction id="J8" type="priority" x="89.02" y="22.07" incLanes="E7_0 -E8_0" intLanes=":J8_0_0 :J8_1_0" shape="85.85,25.28 92.25,25.22 91.51,21.69 90.62,20.46 89.38,19.58 87.78,19.05 85.84,18.88">
        <request index="0" response="00" foes="00" cont="0"/>
        <request index="1" response="00" foes="00" cont="0"/>
    </junction>
    <junction id="J9" type="priority" x="-17.32" y="97.44" incLanes="-E10_0 -E9_0" intLanes=":J9_0_0 :J9_1_0" shape="-13.99,100.58 -14.11,94.18 -20.51,94.16 -20.33,96.15 -19.79,97.78 -18.89,99.03 -17.62,99.92 -15.99,100.43">
        <request index="0" response="00" foes="00" cont="0"/>
        <request index="1" response="00" foes="00" cont="0"/>
    </junction>

    <junction id=":J2_12_0" type="internal" x="-13.99" y="63.27" incLanes=":J2_2_0 -E14_0" intLanes=":J2_4_0 :J2_5_0 :J2_6_0 :J2_7_0 :J2_10_0 :J2_11_0"/>
    <junction id=":J2_13_0" type="internal" x="-16.27" y="59.14" incLanes=":J2_5_0 E9_0" intLanes=":J2_1_0 :J2_2_0 :J2_7_0 :J2_8_0 :J2_9_0 :J2_10_0"/>
    <junction id=":J2_14_0" type="internal" x="-20.42" y="61.38" incLanes=":J2_8_0 -E0_0" intLanes=":J2_0_0 :J2_1_0 :J2_4_0 :J2_5_0 :J2_10_0 :J2_11_0"/>
    <junction id=":J2_15_0" type="internal" x="-18.18" y="65.56" incLanes=":J2_11_0 -E5_0" intLanes=":J2_1_0 :J2_2_0 :J2_3_0 :J2_4_0 :J2_7_0 :J2_8_0"/>
    <junction id=":J3_12_0" type="internal" x="41.51" y="63.05" incLanes=":J3_2_0 E0_0" intLanes=":J3_4_0 :J3_5_0 :J3_6_0 :J3_7_0 :J3_10_0 :J3_11_0"/>
    <junction id=":J3_13_0" type="internal" x="39.24" y="58.89" incLanes=":J3_5_0 -E2_0" intLanes=":J3_1_0 :J3_2_0 :J3_7_0 :J3_8_0 :J3_9_0 :J3_10_0"/>
    <junction id=":J3_14_0" type="internal" x="35.09" y="61.14" incLanes=":J3_8_0 -E1_0" intLanes=":J3_0_0 :J3_1_0 :J3_4_0 :J3_5_0 :J3_10_0 :J3_11_0"/>
    <junction id=":J3_15_0" type="internal" x="37.32" y="65.29" incLanes=":J3_11_0 -E3_0" intLanes=":J3_1_0 :J3_2_0 :J3_3_0 :J3_4_0 :J3_7_0 :J3_8_0"/>
    <junction id=":J4_12_0" type="internal" x="92.59" y="63.17" incLanes=":J4_2_0 E1_0" intLanes=":J4_4_0 :J4_5_0 :J4_6_0 :J4_7_0 :J4_10_0 :J4_11_0"/>
    <junction id=":J4_13_0" type="internal" x="90.29" y="59.01" incLanes=":J4_5_0 -E11_0" intLanes=":J4_1_0 :J4_2_0 :J4_7_0 :J4_8_0 :J4_9_0 :J4_10_0"/>
    <junction id=":J4_14_0" type="internal" x="86.18" y="61.23" incLanes=":J4_8_0 -E13_0" intLanes=":J4_0_0 :J4_1_0 :J4_4_0 :J4_5_0 :J4_10_0 :J4_11_0"/>
    <junction id=":J4_15_0" type="internal" x="88.38" y="65.44" incLanes=":J4_11_0 -E7_0" intLanes=":J4_1_0 :J4_2_0 :J4_3_0 :J4_4_0 :J4_7_0 :J4_8_0"/>
    <junction id=":J5_6_0" type="internal" x="41.33" y="97.70" incLanes=":J5_1_0 E10_0" intLanes=":J5_3_0 :J5_4_0 :J5_5_0"/>
    <junction id=":J6_6_0" type="internal" x="35.09" y="21.29" incLanes=":J6_3_0 E8_0" intLanes=":J6_0_0 :J6_1_0 :J6_5_0"/>

    <connection from="-E0" to="-E9" fromLane="0" toLane="0" via=":J2_0_0" tl="J2" linkIndex="0" dir="r" state="O"/>
    <connection from="-E0" to="E14" fromLane="0" toLane="0" via=":J2_1_0" tl="J2" linkIndex="1" dir="s" state="O"/>
    <connection from="-E0" to="E5" fromLane="0" toLane="0" via=":J2_2_0" tl="J2" linkIndex="2" dir="l" state="o"/>
    <connection from="-E1" to="E2" fromLane="0" toLane="0" via=":J3_0_0" tl="J3" linkIndex="0" dir="r" state="o"/>
    <connection from="-E1" to="-E0" fromLane="0" toLane="0" via=":J3_1_0" tl="J3" linkIndex="1" dir="s" state="o"/>
    <connection from="-E1" to="E3" fromLane="0" toLane="0" via=":J3_2_0" tl="J3" linkIndex="2" dir="l" state="o"/>
    <connection from="-E10" to="E9" fromLane="0" toLane="0" via=":J9_0_0" dir="l" state="M"/>